@<TRIPOS>MOLECULE
3672
 33 33 0 0 0
SMALL
GASTEIGER

@<TRIPOS>ATOM
      1 O          -4.4457   -1.0032    0.4113 O.3     1  UNL1       -0.4802
      2 O          -2.4005   -1.9114    0.0531 O.2     1  UNL1       -0.2503
      3 C           3.9024   -0.4411    0.0362 C.3     1  UNL1       -0.0427
      4 C           3.1486    0.8194   -0.4313 C.3     1  UNL1       -0.0253
      5 C           1.6528    0.7393   -0.2472 C.ar    1  UNL1       -0.0471
      6 C          -1.0946    0.5935    0.0901 C.ar    1  UNL1       -0.0339
      7 C          -2.5728    0.5152    0.2719 C.3     1  UNL1        0.0784
      8 C           3.6076   -0.7760    1.5005 C.3     1  UNL1       -0.0624
      9 C           3.5239   -1.6299   -0.8505 C.3     1  UNL1       -0.0624
     10 C           0.8690    0.2281   -1.2695 C.ar    1  UNL1       -0.0583
     11 C           1.0897    1.1791    0.9405 C.ar    1  UNL1       -0.0583
     12 C          -0.5135    0.1549   -1.0998 C.ar    1  UNL1       -0.0575
     13 C          -0.2929    1.1057    1.1102 C.ar    1  UNL1       -0.0575
     14 C          -3.3736    1.3495   -0.7486 C.3     1  UNL1       -0.0482
     15 C          -3.1004   -0.9233    0.2332 C.2     1  UNL1        0.3119
     16 H           4.9775   -0.2527   -0.0735 H       1  UNL1        0.0299
     17 H           3.3789    1.0242   -1.4854 H       1  UNL1        0.0316
     18 H           3.5298    1.6907    0.1182 H       1  UNL1        0.0316
     19 H          -2.8243    0.8896    1.2739 H       1  UNL1        0.0459
     20 H           2.5794   -1.1167    1.6574 H       1  UNL1        0.0232
     21 H           3.7958    0.0879    2.1462 H       1  UNL1        0.0232
     22 H           4.2658   -1.5849    1.8375 H       1  UNL1        0.0232
     23 H           4.1778   -2.4814   -0.6301 H       1  UNL1        0.0232
     24 H           2.4964   -1.9688   -0.6863 H       1  UNL1        0.0232
     25 H           3.6494   -1.3895   -1.9115 H       1  UNL1        0.0232
     26 H           1.3084   -0.1099   -2.2035 H       1  UNL1        0.0620
     27 H           1.7024    1.5855    1.7398 H       1  UNL1        0.0620
     28 H          -1.1208   -0.2449   -1.9075 H       1  UNL1        0.0621
     29 H          -0.7290    1.4534    2.0430 H       1  UNL1        0.0621
     30 H          -3.0012    2.3792   -0.7840 H       1  UNL1        0.0241
     31 H          -3.3032    0.9294   -1.7582 H       1  UNL1        0.0241
     32 H          -4.4357    1.3895   -0.4835 H       1  UNL1        0.0241
     33 H          -4.7639   -1.9305    0.3782 H       1  UNL1        0.2951
@<TRIPOS>BOND
     1     1    15    1
     2     1    33    1
     3     2    15    2
     4     3     4    1
     5     3     8    1
     6     3     9    1
     7     3    16    1
     8     4     5    1
     9     4    17    1
    10     4    18    1
    11     5    10   ar
    12     5    11   ar
    13     6     7    1
    14     6    12   ar
    15     6    13   ar
    16     7    14    1
    17     7    15    1
    18     7    19    1
    19     8    20    1
    20     8    21    1
    21     8    22    1
    22     9    23    1
    23     9    24    1
    24     9    25    1
    25    10    12   ar
    26    10    26    1
    27    11    13   ar
    28    11    27    1
    29    12    28    1
    30    13    29    1
    31    14    30    1
    32    14    31    1
    33    14    32    1
